LAMMPS (9 Dec 2014)
# 4 layer nanoparticle of K-illite

variable Tdesired equal 900
variable rampLength equal 1000
variable Tstart equal 100
variable runLength equal 1000
variable xReplica equal 1
variable yReplica equal 1

units metal #defines the units: time in ps, distances in Angstrom, energies in eV, etc.

dimension 3 #3-D system

atom_style full

#LJ+coulomb solved up to 15 Angstrom, coulomb solved in k-space beyond 15 A

pair_style lj/cut/coul/long 15.0

#Lorentz-Berthelot combining rules for the LJ interactions
pair_modify mix arithmetic

# Bond and angles exist
bond_style harmonic
#angle_style harmonic

#increasing the page size as the distance used is 15 angstorm
# ??? The values are arbitrary for now; should try lower values
neigh_modify one 50000 page 50000000

#Setting up the system

#input file
#There should be an accompanying file named "cutoff_file.illite" that contains
# the what atoms are what types - please see that; if it's not there
# please reach me at kedar.kolluri@gmail.com

read_data dat_lammps.test_data
  triclinic box = (0 0 0) to (15.678 18.0366 40.0892) with tilt (0 -3.97671 0)
  reading atoms ...
  993 atoms
  scanning bonds ...
  scanning angles ...
  reading velocities ...
  993 velocities
  reading bonds ...
  96 bonds
  reading angles ...
  192 angles

#Lennard-Jones pair coefficients for all atom types (the units are eV and Angstrom)
# please see comment for read_data command for details on what atom is what type

pair_coeff      1       1       7.98102e-8      3.30203 #Si_base_tet-Si_base_tet
#pair_coeff     1       1       0 0

pair_coeff      2       2       7.98102e-8      3.30203 #Si_oct-Si_oct
#pair_coeff      2       2       0 0

pair_coeff      3       3       5.76646e-8      4.27124 #Al_oct-Al_oct
#pair_coeff     3       3       0 0

pair_coeff      4       4       5.76646e-8      4.27124 #Al_tet-Al_tet
#pair_coeff     4       4       0 0

pair_coeff      5       5       6.73853e-3      3.16556 #O_regular-O_regular
#pair_coeff     5       5       0 0

pair_coeff      6       6       6.73853e-3      3.16556 #O_hydroxyl-O_hydroxly
#pair_coeff     6       6       0 0

pair_coeff      7       7       4.337e-3        3.33200 #K from Dang (1995)
#pair_coeff     7       7       0 0

pair_coeff      8       8       0.0             0.00000 #H_hydroxyl-H_hydroxyl

pair_coeff      9       9       6.73853e-3      3.16556 #O_bridge-O_bridge
#pair_coeff     9       9       0 0

pair_coeff      10      10      0.0             0.00000 #dummy - no such type exists

#Begin- Info from Laura's matlab file
#bondcoeffs = [1, 24.0291, 1.0; 2, 24.0291, 1.0; 3, 0.0, 1.65;...
#              4.0, 0.0, 2.05; 5, 24.0291, 1.0]; %Bond coefficients
#where 1. O-H (6-9), 2. O-He(NA), 3. Si-Oe(NA), 4. Al-Oe(NA), 5. Hw-Ow(NA)

#anglecoeffs = [1, 1.30090, 109.47; 2, 1.30090, 109.47; 3, 1.98472, 109.47;...
#                4, 1.98472, 109.47]; %Angle coefficients
#where % Angle types: 1. Si-O-H (1, 2), 2. Al-O-H (3, 4), 3. He-O-He(NA), 4. Hw-Ow-Hw(NA)
#End- Info is from Laura's matlab file

#relevant bond information for this case
bond_coeff 1 24.0291 1.0
#bond_coeff 1 0.0 0.0

#relevant angle information for this case
#angle_coeff 1 1.30090 109.47
#angle_coeff 2 1.30090 109.47
#angle_coeff 3 1.98472 109.47
#angle_coeff 4 1.98472 109.47
#angle_coeff 1 0 0
#angle_coeff 2 0 0
#angle_coeff 3 0 0
#angle_coeff 4 0 0

#k-space solver parameters (for electrostatic interactions)
kspace_style pppm 1e-5

minimize 0.0 0.0 1000 100000
PPPM initialization ...
  G vector (1/distance) = 0.222203
  grid = 15 16 30
  stencil order = 5
  estimated absolute RMS force accuracy = 7.94014e-05
  estimated relative force accuracy = 5.51413e-06
  3d grid and FFT values/proc = 18722 7200
Step Temp E_pair E_mol TotEng Press
0            0   -9062.9207 0.0031942773   -9062.9175    393795.91
Loop time of 27.932 on 1 procs for 297 steps with 993 atoms

Minimization stats:
  Stopping criterion = linesearch alpha is zero
  Energy initial, next-to-last, final =
  Force two-norm initial, final = 654.574 0.033926
  Force max component initial, final = 74.6548 0.0103796
  Final line search alpha, max atom move = 7.62939e-06 7.91903e-08
  Iterations, force evaluations = 297 636

Pair  time (%) = 25.641 (91.7978)
Bond  time (%) = 0.00249982 (0.00894966)
Kspce time (%) = 1.89395 (6.78057)
Neigh time (%) = 0.27707 (0.991945)
Comm  time (%) = 0.0880966 (0.315397)
Outpt time (%) = 0 (0)
Other time (%) = 0.0294108 (0.105294)

minimize 0.0 0.0 1000 100000
PPPM initialization ...
  G vector (1/distance) = 0.222203
  grid = 15 16 30
  stencil order = 5
  estimated absolute RMS force accuracy = 7.94014e-05
  estimated relative force accuracy = 5.51413e-06
  3d grid and FFT values/proc = 18722 7200
Step Temp E_pair E_mol TotEng Press
297            0   -9970.2881    1.9380019   -9968.3501    3736.0942
Loop time of 2.0134 on 1 procs for 4 steps with 993 atoms

Minimization stats:
  Stopping criterion = linesearch alpha is zero
  Energy initial, next-to-last, final =
  Force two-norm initial, final = 0.033926 0.0314785
  Force max component initial, final = 0.0103796 0.00512829
  Final line search alpha, max atom move = 7.62939e-06 3.91257e-08
  Iterations, force evaluations = 4 47

Pair  time (%) = 1.86983 (92.8693)
Bond  time (%) = 0.000187397 (0.00930749)
Kspce time (%) = 0.135319 (6.72094)
Neigh time (%) = 0 (0)
Comm  time (%) = 0.00635338 (0.315555)
Outpt time (%) = 0 (0)
Other time (%) = 0.00171018 (0.0849397)

minimize 0.0 0.0 1000 100000
PPPM initialization ...
  G vector (1/distance) = 0.222203
  grid = 15 16 30
  stencil order = 5
  estimated absolute RMS force accuracy = 7.94014e-05
  estimated relative force accuracy = 5.51413e-06
  3d grid and FFT values/proc = 18722 7200
Step Temp E_pair E_mol TotEng Press
301            0   -9970.2882    1.9380574   -9968.3502    3736.8162
Loop time of 1.57229 on 1 procs for 1 steps with 993 atoms

Minimization stats:
  Stopping criterion = linesearch alpha is zero
  Energy initial, next-to-last, final =
  Force two-norm initial, final = 0.0314785 0.0314785
  Force max component initial, final = 0.00512829 0.00512829
  Final line search alpha, max atom move = 7.62939e-06 3.91257e-08
  Iterations, force evaluations = 1 35

Pair  time (%) = 1.45891 (92.7887)
Bond  time (%) = 0.000156403 (0.00994743)
Kspce time (%) = 0.106665 (6.78405)
Neigh time (%) = 0 (0)
Comm  time (%) = 0.005198 (0.3306)
Outpt time (%) = 0 (0)
Other time (%) = 0.00136352 (0.0867215)

minimize 0.0 0.0e-8 1000 100000
PPPM initialization ...
  G vector (1/distance) = 0.222203
  grid = 15 16 30
  stencil order = 5
  estimated absolute RMS force accuracy = 7.94014e-05
  estimated relative force accuracy = 5.51413e-06
  3d grid and FFT values/proc = 18722 7200
Step Temp E_pair E_mol TotEng Press
302            0   -9970.2882    1.9380574   -9968.3502    3736.8162
Loop time of 1.60999 on 1 procs for 1 steps with 993 atoms

Minimization stats:
  Stopping criterion = linesearch alpha is zero
  Energy initial, next-to-last, final =
  Force two-norm initial, final = 0.0314785 0.0314785
  Force max component initial, final = 0.00512829 0.00512829
  Final line search alpha, max atom move = 7.62939e-06 3.91257e-08
  Iterations, force evaluations = 1 35

Pair  time (%) = 1.49642 (92.9457)
Bond  time (%) = 0.000133514 (0.00829288)
Kspce time (%) = 0.106819 (6.63478)
Neigh time (%) = 0 (0)
Comm  time (%) = 0.00531578 (0.330175)
Outpt time (%) = 0 (0)
Other time (%) = 0.0013051 (0.0810629)

replicate 1 1 1
  triclinic box = (0 0 0) to (15.678 18.0366 40.0892) with tilt (0 -3.97671 0)
  993 atoms
  96 bonds
  192 angles

#equations of motion solved with the Verlet algorithm
run_style verlet

#define atoms that will move
#for now, all atoms are moving but there will be a problem with that
group mobile type 1 2 3 4 5 6 7 8 9 10
993 atoms in group mobile

#use only temp of mobile atoms so that appropriate velocity is assigned to them
#otherwsie average velocity will be much lower and actual simulation temp will be much lower than desired simulation temp
compute mobile_temp mobile temp

#compute stress (all contributions) for only mobile atoms
# don't know what to do with pressure, really but lets just compute for now
compute mobile_stress mobile stress/atom mobile_temp

# pressure in GPa
variable press_gpa equal press*0.0001

compute energy all pe/atom
compute pe all reduce sum c_energy

compute bond_energy all pe/atom bond
compute ebond all reduce sum c_bond_energy

group katoms type 7
33 atoms in group katoms

compute katom_disp katoms displace/atom
compute max_katom_disp all reduce max c_katom_disp[4]

compute allatom_disp all displace/atom
compute max_allatom_disp all reduce max c_allatom_disp[4]

#logging simulation data
thermo_style custom step etotal ke enthalpy temp v_press_gpa c_max_allatom_disp c_max_katom_disp cpu

#frequency with which the thermodynamic output will be reported
thermo 1

velocity all create 100 4945790 rot yes mom yes dist uniform
timestep 0.001
fix nvt_warmup all nvt temp 100 900 0.05
fix momfix all momentum 5 linear 1 1 1 angular
run 1000
PPPM initialization ...
  G vector (1/distance) = 0.222203
  grid = 15 16 30
  stencil order = 5
  estimated absolute RMS force accuracy = 7.94014e-05
  estimated relative force accuracy = 5.51413e-06
  3d grid and FFT values/proc = 18722 7200
Step TotEng KinEng Enthalpy Temp press_gp max_alla max_kato CPU
303   -9955.5276    12.822606    -9920.539          100     0.494497 5.3290705e-15 3.5527137e-15            0
Averages over the last 501 of 1001 rows, steps 803 to 1303:
TotEng KinEng Enthalpy Temp press_gp max_alla max_kato
-9795.63 85.7976 -9613.26 669.112 2.57736 2.32361 0.627663
Loop time of 45.8895 on 1 procs for 1000 steps with 993 atoms

Pair  time (%) = 40.4723 (88.1951)
Bond  time (%) = 0.00425863 (0.00928019)
Kspce time (%) = 2.98081 (6.49563)
Neigh time (%) = 2.15284 (4.69136)
Comm  time (%) = 0.15033 (0.327592)
Outpt time (%) = 0.0600498 (0.130857)
Other time (%) = 0.0689225 (0.150192)

unfix nvt_warmup
unfix momfix

reset_timestep 1000

fix nvt_run all nvt temp 900 900 0.05
fix momfix all momentum 5 linear 1 1 1 angular

shell mkdir data

dump save1 all xyz 5000 dat_vesta.*.xyz.gz
#dump save1 all custom 5000 dat.*.xyz.gz element x y z q type c_energy
dump save2 all custom 5000 dat.*.gz id type element q xs ys zs xu yu zu vx vy vz c_energy c_allatom_disp[4]
#dump save2 all cfg 5000 dat.*.cfg mass type xs ys zs vx vy vz id type c_energy c_bond_energy x y z
dump_modify save1 element Si Si Al Al O Oa K H Ob D # D is for Dummy - does not exist
dump_modify save2 element Si Si Al Al O Oa K H Ob D # D is for Dummy - does not exist

run 1000
PPPM initialization ...
  G vector (1/distance) = 0.222203
  grid = 15 16 30
  stencil order = 5
  estimated absolute RMS force accuracy = 7.94014e-05
  estimated relative force accuracy = 5.51413e-06
  3d grid and FFT values/proc = 18722 7200
Step TotEng KinEng Enthalpy Temp press_gp max_alla max_kato CPU
1000   -9736.9836    118.41411   -9479.6418    923.47924    3.6370342      2.65216   0.56416831            0
Averages over the last 501 of 1001 rows, steps 1500 to 2000:
TotEng KinEng Enthalpy Temp press_gp max_alla max_kato
-9733.78 116.077 -9500.41 905.25 3.29829 2.35282 0.763673
Loop time of 47.1779 on 1 procs for 1000 steps with 993 atoms

Pair  time (%) = 39.6483 (84.0399)
Bond  time (%) = 0.00427842 (0.0090687)
Kspce time (%) = 2.92351 (6.19677)
Neigh time (%) = 4.29773 (9.10964)
Comm  time (%) = 0.162126 (0.343648)
Outpt time (%) = 0.0756307 (0.16031)
Other time (%) = 0.0663552 (0.140649)

undump save1
undump save2
